  160
Title
 H     5.578198     2.116387     0.320531
 H    -5.578198     2.116441     0.320136
 H    -5.585332    -2.065076    -0.579356
 H     5.585355    -2.064978    -0.579664
 H     3.111201     2.126427     0.296645
 H    -3.111212     2.126498     0.296217
 H    -3.118970    -2.064934    -0.641627
 H     3.118983    -2.064834    -0.641949
 H     1.220635     1.957548    -1.123496
 H    -1.220610     1.957537    -1.123539
 H    -1.220293    -1.899043     0.758443
 H     1.220294    -1.899041     0.758459
 C     5.032486     1.205582     0.109357
 C    -5.032484     1.205606     0.109094
 C    -5.036258    -1.151975    -0.387802
 C     5.036272    -1.151917    -0.387949
 C     3.642821     1.206083     0.084599
 C    -3.642820     1.206112     0.084325
 C    -3.646772    -1.146719    -0.411653
 C     3.646786    -1.146663    -0.411804
 C     0.695422     1.113681    -0.690912
 C    -0.695406     1.113675    -0.690932
 C    -0.695246    -1.055761     0.324631
 C     0.695250    -1.055758     0.324649
 O   -14.278318    -2.941509     1.433414
 O    15.731985    -1.095419    -0.275662
 O    14.278392    -2.941586     1.433439
 O   -15.732046    -1.095420    -0.275620
 O    13.150926    -2.166274     3.230384
 O    13.150571     0.677121     3.830389
 O   -13.150433     0.677063     3.830320
 O   -13.150770    -2.166186     3.230322
 O    14.278477     2.112356     2.500212
 O   -15.732014     1.114631     0.190496
 O   -14.278385     2.112318     2.500184
 O    15.731955     1.114638     0.190444
 O    -9.197849     2.851919    -1.420133
 O     7.835912     1.108061     0.192845
 O     9.197769     2.851900    -1.420181
 O    -7.835901     1.108048     0.192796
 O    10.331117     2.075828    -3.214198
 O    10.331244    -0.598372    -3.778946
 O   -10.331333    -0.598378    -3.778872
 O   -10.331152     2.075811    -3.214168
 O     9.198208    -2.033560    -2.451715
 O    -7.837133    -1.090608    -0.271109
 O    -9.198253    -2.033521    -2.451609
 O     7.837138    -1.090581    -0.271121
 O    -9.284382     2.111679     2.501802
 O    10.649870     3.849929     0.890608
 O     9.284452     2.111703     2.501832
 O   -10.649882     3.849893     0.890637
 O    13.236092    -0.599219    -3.780726
 O    13.236135     2.077325    -3.215581
 O   -13.236211     2.077384    -3.215577
 O   -13.236158    -0.599212    -3.780659
 O     9.284691    -2.941730     1.435013
 O   -10.649971    -3.880293    -0.741533
 O    -9.284683    -2.941760     1.435045
 O    10.649972    -3.880241    -0.741567
 O   -14.363452    -2.034704    -2.450185
 O    12.909277    -3.877188    -0.740289
 O    14.363441    -2.034675    -2.450268
 O   -12.909275    -3.877238    -0.740242
 O    10.416990     0.676700     3.829332
 O    10.416757    -2.165458     3.229451
 O   -10.416666    -2.165415     3.229499
 O   -10.416956     0.676692     3.829289
 O    14.363330     2.852766    -1.418465
 O   -12.909179     3.846588     0.890581
 O   -14.363397     2.852778    -1.418439
 O    12.909164     3.846597     0.890582
 H     8.991259    -0.408312     1.936080
 H   -11.780683     3.127008    -1.334766
 H    -8.991216    -0.408344     1.936048
 H    11.780640     3.127000    -1.334764
 H    11.780714    -2.319396    -2.484239
 H   -11.780771    -2.319424    -2.484204
 H    14.565728    -0.409305     1.941358
 H   -14.565714    -0.409284     1.941335
 C    -9.457027    -1.476327    -3.551727
 C   -14.109590     2.788697    -2.650836
 C    -9.603840    -2.936694     2.653867
 C   -13.962858     1.615433     3.614321
 C   -14.109620    -1.477995    -3.551534
 C   -13.962995    -2.937319     2.653360
 C    -9.456892     2.787015    -2.651549
 C    -9.603780     1.614574     3.614628
 C   -11.780127    -4.432212    -0.813194
 C    -7.244076     0.015084    -0.070727
 C   -16.289288     0.018594    -0.085142
 C   -11.780029     4.383724     1.048120
 C    14.109587    -1.477981    -3.551619
 C     9.456822     2.787012    -2.651597
 C    13.963152    -2.937411     2.653414
 C     9.603830     1.614601     3.614665
 C     9.456948    -1.476347    -3.551835
 C     9.603903    -2.936711     2.653821
 C    14.109524     2.788640    -2.650857
 C    13.963007     1.615488     3.614379
 C    11.780125    -4.432148    -0.813291
 C    16.289217     0.018605    -0.085223
 C     7.244082     0.015112    -0.070731
 C    11.780021     4.383755     1.048091
 C    -5.748059     0.024568    -0.123161
 C     5.748063     0.024588    -0.123112
 C    -1.427916     0.029488    -0.181876
 C     1.427922     0.029498    -0.181836
 C    -2.916365     0.030314    -0.172219
 C     2.916379     0.030325    -0.172155
 O   -13.780773    -0.294708     1.399241
 O    13.780786    -0.294723     1.399265
 O   -11.779942     2.244787    -0.954292
 O     9.781282    -0.295114     1.400966
 O    11.779893     2.244781    -0.954284
 O    -9.781245    -0.295121     1.400947
 O    11.780069    -1.666225    -1.779641
 O   -11.780096    -1.666243    -1.779615
 O   -10.313612     0.211906    -1.001178
 O    10.313576     0.211916    -1.001185
 O   -11.779167    -1.653003     0.728031
 O    13.250877     0.211688    -1.000209
 O    11.779174    -1.652981     0.728032
 O   -13.250922     0.211687    -1.000215
 O    11.779045     1.218563     1.333795
 O   -11.779032     1.218565     1.333758
Zr   -13.570575    -1.755272    -0.353242
Zr    13.570564    -1.755275    -0.353244
Zr    11.781817    -0.525707     2.492932
Zr   -11.781742    -0.525701     2.492894
Zr    13.570494     1.749458     0.386515
Zr   -13.570519     1.749456     0.386503
Zr    -9.981881     1.744565     0.384368
Zr     9.981883     1.744578     0.384375
Zr    11.783624     0.520221    -2.461626
Zr   -11.783678     0.520241    -2.461595
Zr     9.982190    -1.750012    -0.353442
Zr    -9.982205    -1.750040    -0.353419
 H   -11.785051     5.446874     1.344341
 H   -17.391184     0.033021    -0.153722
 H   -11.785047    -5.524366    -0.971913
 H    11.785055     5.446916     1.344295
 H    11.785048    -5.524271    -0.972144
 H    17.391094     0.033044    -0.153881
 H    -8.859672     3.437992    -3.310576
 H   -14.710857     3.439281    -3.308682
 H   -14.465471     2.041333     4.499426
 H    -9.104464     2.039724     4.500904
 H   -14.465575    -3.684827     3.290632
 H    -9.104461    -3.683877     3.292515
 H    14.465806    -3.684946     3.290680
 H    14.710806    -1.807140    -4.416320
 H     9.104512     2.039797     4.500934
 H     8.859581     3.437968    -3.310657
 H     8.859497    -1.805246    -4.417689
 H     9.104536    -3.683916     3.292451
 H    14.465706     2.041397     4.499477
 H    14.710788     3.439175    -3.308739
 H   -14.710845    -1.807179    -4.416200
 H    -8.859585    -1.805243    -4.417540
