  140
Title
 Zr      9.17177100   -1.69251000    0.58203100
 O       8.85305000   -0.34376500   -0.97659800
 O       9.96088600   -3.02718700   -1.05489200
 C       9.68280600   -3.14938100   -2.27784400
 O       7.37780300   -2.35226900   -0.67905900
 H       7.37433600   -3.27264200   -0.95337900
 O       7.38458700   -1.03693400    1.45940000
 O      11.32966100   -1.08463200    0.32833000
 C      11.88568700   -0.01696700   -0.04065000
 O       8.49771200   -3.70565100    1.32310500
 C       7.36343100   -4.22071100    1.50208500
 O       9.87224600   -1.79396000    2.70418600
 C       9.56884200   -1.15305900    3.74460000
 O       9.38750800    0.46166400    1.33947100
 H      10.17082100    0.64194800    1.86520300
 Zr      9.17934600    1.68931700   -0.57637000
 O       9.95629800    1.68733900   -2.67858800
 O      11.33020600    1.05351200   -0.40397500
 O       9.89628200    3.08116800    1.04398200
 O       8.52997400    3.74516600   -1.23883700
 Zr      5.58856000   -1.67266000    0.58828300
 O       4.79367900   -3.01425600   -1.03509900
 O       6.23602200   -3.68657900    1.33548500
 O       4.87788700   -1.75982400    2.71585700
 O       3.46186200   -1.05526400    0.30532300
 Zr      7.38055500   -0.84532000   -2.37766100
 O       7.39278900    1.42495200   -1.97820100
 H       7.39414100    1.98729600   -2.75686700
 O       8.82157900   -2.50491700   -2.93329200
 O       5.94498300    0.10167800   -3.80800600
 C       5.09600400    1.02437100   -3.69559400
 O       5.91892600   -2.49709300   -2.92377200
 C       5.06202900   -3.13812100   -2.25996500
 O       8.81986900    0.08952800   -3.80894100
 C       9.68056500    1.00122300   -3.69655500
 O       5.92104000   -0.33132400   -0.97513900
 Zr      5.60813700    1.70292800   -0.57439500
 O       7.39521200    1.73821000    0.51047900
 O       6.27033900    3.75471200   -1.23440700
 C       7.40206100    4.28338200   -1.39609000
 O       4.89655000    3.10174600    1.04617400
 C       5.19758900    3.23257300    2.26250000
 O       4.83545100    1.71949300   -2.67983700
 O       5.39225600    0.48137800    1.34216000
 H       4.60280400    0.66657900    1.85708400
 O       3.47331700    1.07058600   -0.42694900
 C       2.88395500   -0.00204600   -0.09765200
 C       1.39196500   -0.01541700   -0.15650700
 C       0.69161000   -1.16521200    0.22373600
 H       1.24709700   -2.04251600    0.52768800
 C       0.69662100    1.12935000   -0.56107700
 H       1.25593500    2.00703200   -0.85708800
 Zr      7.39099900    0.83520200    2.39501300
 O       6.01992200   -0.17917900    3.86030200
 C       5.18537300   -1.11533600    3.75291000
 O       8.77285700    2.53434700    2.92715300
 C       9.60275100    3.20927300    2.26175900
 O       6.02637400    2.55428700    2.92520600
 O       8.75327200   -0.20101800    3.85526800
 Zr     -5.58152100   -1.66841100    0.59137900
 O      -5.38100100    0.47858500    1.33633800
 H      -4.59012800    0.65717300    1.85141300
 O      -3.45955800   -1.05123400    0.29096000
 C      -2.88359700    0.00167100   -0.11570400
 C      -1.39109200   -0.01271600   -0.16712100
 C      -0.69524700   -1.16369000    0.21864300
 H      -1.25461000   -2.03969600    0.51897400
 C      -0.69099600    1.13067000   -0.56661700
 H      -1.24640500    2.00936000   -0.86713500
 O      -4.79754000   -3.01479500   -1.03208900
 C      -5.06909600   -3.13374600   -2.25617900
 O      -7.37279500   -2.34717100   -0.66597600
 H      -7.36600200   -3.26866200   -0.93608300
 O      -5.91443100   -0.32969700   -0.97687100
 O      -4.85245900   -1.76777700    2.71574300
 C      -5.16223900   -1.13708700    3.76207800
 O      -7.37754100   -1.03699500    1.46754100
 O      -6.24649600   -3.67006700    1.34759100
 C      -7.37912700   -4.18643300    1.52366800
 Zr     -5.61346000    1.70348300   -0.59225700
 O      -6.30872600    3.76010800   -1.26226100
 O      -4.85039400    1.73205400   -2.71328200
 O      -4.91085600    3.09793000    1.01879300
 O      -3.47399600    1.07190400   -0.45147100
 Zr     -7.37405800   -0.84739500   -2.37269400
 O      -8.85364400   -0.34869400   -0.97155200
 O      -5.95350300    0.09990900   -3.82389100
 C      -5.12500400    1.04304400   -3.73049300
 O      -8.80779700    0.06502600   -3.80560000
 C      -9.67341800    0.97246300   -3.69746600
 O      -7.39698300    1.41793100   -1.98481300
 H      -7.40249300    1.97555100   -2.76664200
 O      -5.92280300   -2.48854400   -2.91925400
 O      -8.80611900   -2.50005700   -2.90903100
 C      -9.66573200   -3.13724800   -2.24716100
 Zr     -9.17662400   -1.67856300    0.59793900
 O      -9.38665200    0.46134000    1.34551200
 H     -10.17307500    0.64136400    1.86650000
 O      -9.88855000   -1.76453500    2.72675800
 C      -9.58777000   -1.11074300    3.75940800
 O     -11.34624600   -1.07953000    0.33636700
 C     -11.90226200   -0.01809300   -0.05008800
 O      -8.51130200   -3.66664700    1.34715500
 O      -9.95321100   -3.00899300   -1.02799100
 Zr     -7.37495000    0.82551300    2.39682000
 O      -8.74176600    2.52242800    2.92018400
 C      -9.58051300    3.18892500    2.25897500
 O      -6.01296100    2.53365000    2.91203800
 C      -5.19398800    3.21321500    2.24061200
 O      -7.39197700    1.72486000    0.50389600
 O      -8.74120600   -0.18507600    3.86717800
 O      -5.99240900   -0.19721600    3.87177900
 Zr     -9.18460500    1.67671400   -0.57681500
 O      -9.88356500    3.06543400    1.04415000
 O      -9.96235400    1.65653000   -2.68330800
 O      -8.56813800    3.71678200   -1.25728600
 C      -7.44787900    4.26438900   -1.44037600
 O     -11.34201200    1.05415000   -0.40297000
 H      -7.48251400    5.29502100   -1.82069200
 H      -4.64652800    3.98437200    2.79167300
 H      -4.59758900    1.30750800   -4.65334400
 H      -4.50784600   -3.90533400   -2.80037500
 H      -7.38574100   -5.22524600    1.84682100
 H     -10.21709900   -3.91141200   -2.79036900
 H     -10.22378800    1.20244000   -4.60865700
 H     -13.00373900   -0.01610600   -0.06428700
 H      -4.62989500   -1.43612100    4.67800800
 H     -10.14645500   -1.36417900    4.66719800
 H     -10.12809200    3.95504000    2.81472200
 H       7.40471100    5.33135700   -1.73116700
 H       4.65899200    4.01854900    2.81296700
 H      12.98427600   -0.00822000   -0.02364000
 H       7.35349700   -5.26845600    1.81795200
 H      10.09395000   -1.45175900    4.65771400
 H       4.64708900   -1.39181400    4.66656800
 H      10.24435400    1.23792700   -4.60156600
 H       4.52694300    1.26478800   -4.59650100
 H      10.24516200   -3.92149500   -2.82893900
 H       4.49091500   -3.91102000   -2.79889800
 H      10.14970800    3.98813400    2.81218500
