  276
17.0774059296         0.0000000000         0.0000000000 0.0000682198        17.0774059294         0.0000000000 0.0000864118         0.0000750415        17.0774078365
 H      6.551882    14.601837    12.490040
 H     10.525665     2.475762    12.489886
 H     10.525847    14.601736     4.587492
 H      6.551780     2.475606     4.587447
 H     12.490141     6.551836    14.601788
 H     12.489938    10.525605     2.475713
 H      4.587617    10.525833    14.601715
 H      4.587475     6.551749     2.475581
 H     14.601860    12.490058     6.551775
 H      2.475810    12.489939    10.525585
 H     14.601792     4.587535    10.525777
 H      2.475636     4.587475     6.551733
 H     14.601875     6.551821    12.490044
 H      2.475816    10.525655    12.489880
 H     14.601780    10.525783     4.587498
 H      2.475632     6.551762     4.587435
 H      6.551903    12.490100    14.601784
 H     10.525653    12.489901     2.475711
 H     10.525866     4.587558    14.601721
 H      6.551762     4.587453     2.475583
 H     12.490123    14.601809     6.551766
 H     12.489951     2.475752    10.525589
 H      4.587595    14.601767    10.525775
 H      4.587492     2.475616     6.551745
 H     15.090508     6.063089     3.951338
 H      1.986956    11.014437     3.951179
 H      1.987156     6.063063    13.126193
 H     15.090561    11.014355    13.126150
 H      3.951428    15.090503     6.063075
 H      3.951243     1.986944    11.014425
 H     13.126241     1.987092     6.063002
 H     13.126252    15.090488    11.014293
 H      6.063159     3.951393    15.090481
 H     11.014446     3.951196     1.986884
 H      6.063073    13.126198     1.987073
 H     11.014425    13.126215    15.090435
 H      6.063153    15.090484     3.951339
 H     11.014448     1.986910     3.951179
 H      6.063076     1.987118    13.126204
 H     11.014419    15.090500    13.126137
 H     15.090528     3.951360     6.063069
 H      1.986959     3.951238    11.014421
 H      1.987152    13.126225     6.063007
 H     15.090539    13.126192    11.014294
 H      3.951431     6.063135    15.090467
 H      3.951242    11.014426     1.986883
 H     13.126222     6.063018     1.987074
 H     13.126272    11.014364    15.090449
 H      6.406173     2.311289    10.671159
 H     10.345234    15.482505     9.084641
 H     10.671202     2.311268     6.406107
 H      6.406384    14.766154     6.406301
 H      9.084644     6.732220     1.594980
 H     10.671332    10.671268    14.766232
 H      7.992736    10.345085     1.595015
 H      6.406399     6.406353    14.766124
 H      1.595051     9.084650     6.732209
 H     14.766324    10.671248    10.671214
 H      1.595104     7.992736    10.345078
 H     14.766184     6.406319     6.406304
 H      2.311325     6.406168    10.671148
 H     15.482551    10.345166     9.084649
 H      2.311316    10.671181     6.406102
 H     15.482460     6.732383     7.992837
 H      6.406168    10.671158     2.311240
 H     10.345247     9.084710    15.482472
 H     10.671176     6.406118     2.311245
 H      6.732459     7.992894    15.482385
 H      9.084661     1.595012     6.732212
 H     10.671312    14.766270    10.671199
 H      7.992745     1.595065    10.345086
 H      7.992925    15.482420     6.732351
 H     14.944866    10.849946     2.132456
 H      1.806460     6.943773     0.545943
 H      2.132581    10.850001    14.944806
 H     15.271153     6.943769    16.531534
 H      0.546021    15.270956    10.133675
 H      2.132553     2.132535     6.227536
 H     14.944870     2.132496    10.849934
 H     16.531622    15.271070     6.943691
 H     10.850017     2.132521    14.944807
 H      6.943782     0.545952     1.806438
 H     10.133790    16.531393     1.806384
 H      6.943839    16.531591    15.271051
 H     10.850011    14.944825     2.132452
 H      6.227548     2.132508     2.132518
 H     10.133800     1.806455    16.531385
 H      6.227563    14.945060    14.945000
 H     15.270964     0.545957    10.133670
 H      1.806472     0.545976     6.943778
 H      2.132552    14.944857    10.849939
 H     14.945088    14.945012     6.227424
 H      0.546041    10.133741    15.270913
 H      2.132540     6.227538     2.132499
 H     16.531437    10.133718     1.806384
 H     14.945091     6.227494    14.945003
 H      6.732265     1.595022     9.084623
 H      9.084753    15.482513    10.345126
 H     10.345132     1.595053     7.992682
 H      6.732445    15.482427     7.992834
 H     10.345116     7.992692     1.595019
 H      9.084772    10.345199    15.482471
 H      6.732258     9.084619     1.594974
 H      7.992935     6.732409    15.482388
 H      1.595098    10.345121     7.992681
 H     15.482555     9.084689    10.345136
 H      1.595054     6.732259     9.084614
 H     15.482456     7.992857     6.732349
 H     15.270957    10.133677     0.545921
 H      0.545981     6.943780     1.806429
 H      1.806515    10.133783    16.531382
 H     16.531633     6.943765    15.271049
 H      1.806491    16.531429    10.133713
 H      0.545994     1.806462     6.943777
 H     16.531441     1.806427    10.133709
 H     15.271146    16.531553     6.943691
 H     10.133751     0.545987    15.270908
 H      6.943780     1.806431     0.545953
 H     10.133739    15.270919     0.545917
 H      6.943842    15.271112    16.531534
 C      6.445082     0.149693    10.632354
 C     10.632432    16.927866    10.632312
 C     10.632384     0.149673     6.445030
 C      6.445208    16.927750     6.445112
 C     10.632373     6.445034     0.149646
 C     10.632446    10.632390    16.927826
 C      6.445079    10.632346     0.149641
 C      6.445218     6.445177    16.927719
 C      0.149717    10.632377     6.445031
 C     16.927916    10.632361    10.632318
 C      0.149726     6.445081    10.632349
 C     16.927778     6.445136     6.445107
 C     14.983773     8.688350     2.093653
 C      2.093659     8.389135     2.093612
 C      2.093765     8.688405    14.983728
 C     14.983918     8.389093    14.983811
 C      2.093749    14.983771     8.688340
 C      2.093668     2.093656     8.389131
 C     14.983785     2.093687     8.688337
 C     14.983905    14.983839     8.389023
 C      8.688421     2.093714    14.983731
 C      8.389145     2.093625     2.093618
 C      8.688412    14.983741     2.093651
 C      8.389162    14.983870    14.983808
 C      6.294510    15.354753    11.754392
 C     10.783026     1.722822    11.754266
 C     10.783179    15.354692     5.323099
 C      6.294434     1.722679     5.323093
 C     11.754493     6.294466    15.354706
 C     11.754318    10.782971     1.722775
 C      5.323228    10.783160    15.354667
 C      5.323118     6.294401     1.722650
 C     15.354775    11.754411     6.294400
 C      1.722872    11.754319    10.782956
 C     15.354748     5.323146    10.783099
 C      1.722707     5.323119     6.294392
 C     15.354789     6.294446    11.754394
 C      1.722875    10.783017    11.754263
 C     15.354734    10.783113     5.323103
 C      1.722705     6.294421     5.323084
 C      6.294528    11.754455    15.354702
 C     10.783016    11.754277     1.722774
 C     10.783195     5.323169    15.354672
 C      6.294420     5.323095     1.722652
 C     11.754478    15.354728     6.294394
 C     11.754329     1.722817    10.782958
 C      5.323209    15.354719    10.783099
 C      5.323132     1.722684     6.294401
 C     14.833136     6.816007     3.215691
 C      2.244318    10.261496     3.215562
 C      2.244490     6.816019    13.861799
 C     14.833215    10.261427    13.861794
 C      3.215781    14.833131     6.815995
 C      3.215625     2.244310    10.261486
 C     13.861851     2.244421     6.815956
 C     13.861893    14.833139    10.261361
 C      6.816075     3.215746    14.833105
 C     10.261505     3.215578     2.244257
 C      6.816029    13.861807     2.244397
 C     10.261495    13.861856    14.833093
 C      6.816069    14.833108     3.215691
 C     10.261507     2.244276     3.215563
 C      6.816034     2.244448    13.861808
 C     10.261492    14.833158    13.861786
 C     14.833151     3.215715     6.815989
 C      2.244323     3.215616    10.261484
 C      2.244483    13.861834     6.815960
 C     14.833195    13.861833    10.261362
 C      3.215788     6.816055    14.833095
 C      3.215621    10.261490     2.244254
 C     13.861835     6.815971     2.244398
 C     13.861912    10.261431    14.833103
 C      6.917720     1.482112    10.159648
 C     10.159775    15.595445    10.159665
 C     10.159689     1.482097     6.917662
 C      6.917896    15.595342     6.917806
 C     10.159672     6.917672     1.482066
 C     10.159795    10.159739    15.595405
 C      6.917714    10.159644     1.482061
 C      6.917910     6.917864    15.595308
 C      1.482139    10.159677     6.917661
 C     15.595491    10.159712    10.159675
 C      1.482145     6.917715    10.159639
 C     15.595375     6.917831     6.917806
 C     15.456412    10.020767     1.620947
 C      1.621003     7.056712     1.620967
 C      1.621071    10.020828    15.456362
 C     15.456607     7.056686    15.456505
 C      1.621047    15.456409    10.020761
 C      1.621016     1.621003     7.056709
 C     15.456418     1.620986    10.020758
 C     15.456595    15.456528     7.056613
 C     10.020843     1.621013    15.456361
 C      7.056720     1.620975     1.620975
 C     10.020832    15.456372     1.620942
 C      7.056758    15.456564    15.456507
Zn      8.538673     0.000123    12.808037
Zn      8.538795    -0.000071     4.269360
Zn     12.808070     8.538614     0.000074
Zn      4.269394     8.538768    -0.000097
Zn      0.000159    12.808073     8.538612
Zn     -0.000027     4.269397     8.538774
Zn      0.000171     8.538671    12.808038
Zn     -0.000036     8.538791     4.269358
Zn      8.538669    12.808036     0.000070
Zn      8.538786     4.269357    -0.000090
Zn     12.808078     0.000104     8.538609
Zn      4.269400    -0.000050     8.538778
 N      6.998305    16.539719    11.657431
 N     10.079215     0.537870    11.657367
 N     10.079330    16.539635     5.419990
 N      6.998272     0.537735     5.420033
 N     11.657539     6.998260    16.539671
 N     11.657413    10.079162     0.537823
 N      5.420120    10.079307    16.539610
 N      5.420058     6.998239     0.537706
 N     16.539745    11.657457     6.998186
 N      0.537915    11.657414    10.079157
 N     16.539688     5.420036    10.079239
 N      0.537769     5.420062     6.998240
 N     16.539759     6.998237    11.657430
 N      0.537920    10.079211    11.657368
 N     16.539677    10.079259     5.419992
 N      0.537765     6.998265     5.420028
 N      6.998321    11.657498    16.539667
 N     10.079210    11.657372     0.537821
 N     10.079342     5.420064    16.539616
 N      6.998261     5.420029     0.537709
 N     11.657529    16.539698     6.998182
 N     11.657419     0.537862    10.079154
 N      5.420104    16.539660    10.079243
 N      5.420069     0.537744     6.998246
 N     15.536930     8.000971     3.118731
 N      1.540510     9.076542     3.118666
 N      1.540643     8.000964    13.958689
 N     15.537050     9.076484    13.958733
 N      3.118829    15.536922     8.000960
 N      3.118721     1.540502     9.076534
 N     13.958739     1.540570     8.000899
 N     13.958832    15.536976     9.076418
 N      8.001044     3.118793    15.536888
 N      9.076549     3.118676     1.540458
 N      8.000969    13.958696     1.540539
 N      9.076556    13.958797    15.536940
 N      8.001037    15.536896     3.118730
 N      9.076552     1.540473     3.118669
 N      8.000976     1.540596    13.958694
 N      9.076551    15.537000    13.958728
 N     15.536940     3.118762     8.000957
 N      1.540518     3.118712     9.076532
 N      1.540630    13.958729     8.000904
 N     15.537034    13.958767     9.076419
 N      3.118841     8.001024    15.536881
 N      3.118713     9.076534     1.540453
 N     13.958729     8.000912     1.540542
 N     13.958847     9.076491    15.536946
